; Filename: Net1_CMH.inp
; WNTR: 0.1.3
; Created: 2018-07-18 21:06:42
[TITLE]
EPANET               Example               Network               1
A               simple               example               of               modeling               chlorine               decay.               Both               bulk               and
wall               reactions               are               included.

[JUNCTIONS]
;ID                      Elevation       Demand Pattern                 
 10                        216.408            0 P_10                       ;
 11                        216.408 34.011596627 P_11                       ;
 12                         213.36 39.1292726759 P_12                       ;
 13                        211.836 24.2456885422 P_13                       ;
 21                         213.36 29.6320164858 P_21                       ;
 22                        211.836 46.2360462883 P_22                       ;
 23                        210.312 33.9437878576 P_23                       ;
 31                         213.36 24.6401581456 P_31                       ;
 32                        216.408 19.8937512752 P_32                       ;

[RESERVOIRS]
;ID                           Head                  Pattern
 9                          243.84                            ;

[TANKS]
;ID                      Elevation   Init Level    Min Level    Max Level     Diameter   Min Volume Volume Curve        
 2                          259.08       36.576        30.48        45.72      15.3924      5671.76                        ;

[PIPES]
;ID                   Node1                Node2                      Length     Diameter    Roughness   Minor Loss               Status
 10                   10                   11                   3331.67387411 485.372150464 113.811328379            0                 Open   ;
 11                   11                   12                   1657.13564283 316.943700447 91.3831006337            0                 Open   ;
 110                  2                    12                   52.8106796552 506.609896966 104.006869299            0                 Open   ;
 111                  11                   21                   1654.54087368 215.01206176 101.531132283            0                 Open   ;
 112                  12                   22                   1826.98506296 330.431145219 89.1109075221            0                 Open   ;
 113                  13                   23                   1483.90300058 224.555983414 98.5290708266            0                 Open   ;
 12                   12                   13                   1793.26094084 261.438942511 110.848307299            0                 Open   ;
 121                  21                   31                   1572.61027868 180.745875048 85.2584592309            0                 Open   ;
 122                  22                   32                   1640.16562082 168.077833556 103.840712614            0                 Open   ;
 21                   21                   22                   1585.6057026 214.07116674 102.30660687            0                 Open   ;
 22                   22                   23                   1418.67750998 254.856568931 114.287527886            0                 Open   ;
 31                   31                   32                   1411.61766834 123.694232337 86.5294112859            0                 Open   ;

[PUMPS]
;ID                   Node1                Node2                Properties          
 9                    9                    10                   HEAD     1                    SPEED               1   ;

[VALVES]
;ID                   Node1                Node2                    Diameter Type      Setting   Minor Loss

[EMITTERS]
;ID        Flow coefficient

[CURVES]
;ID         X-Value      Y-Value     
;PUMP: 1
 1            340.687100    76.200000   ;


[PATTERNS]
;ID        Multipliers

P_10 0.618025 0.543651 0.454844 0.415054 0.406594 0.395268 0.385668 0.423559
P_10 0.473188 0.568044 0.556594 0.682055 0.671832 0.759731 0.842346 1.025414
P_10 1.156579 1.202141 1.160170 1.313728 1.296261 1.286349 1.244369 1.240940
P_10 1.236849 1.140934 1.148902 1.084004 1.002884 0.946401 0.939612 0.830565
P_10 0.903139 0.926024 1.019256 0.948396 0.826897 1.090704 0.966278 1.064976
P_10 1.071430 1.011360 1.067024 1.063413 1.003574 0.848181 0.818733 0.754154
P_10 0.690412 0.596603 0.502556 0.490863 0.404950 0.412064 0.370109 0.405782
P_10 0.434059 0.580463 0.591829 0.691177 0.742558 0.762606 0.878697 0.915429
P_10 1.123659 1.080114 1.224038 1.124743 1.272492 1.378281 1.128816 1.208248
P_10 1.154117 1.151411 1.020289 1.002726 1.004945 0.912706 0.968553 0.923610
P_10 0.958387 0.995953 0.916611 1.001360 1.057534 1.176823 1.131232 1.129289
P_10 1.048410 1.151125 1.021759 1.034833 0.948050 0.901317 0.831121 0.672530
P_10 0.663667 0.575817 0.496423 0.486280 0.373789 0.399423 0.423316 0.376372
P_10 0.483958 0.575322 0.621374 0.747653 0.794345 0.837115 0.978909 0.952948
P_10 1.039401 1.008332 1.137417 1.231194 1.179926 1.207029 1.117119 1.167834
P_10 1.253713 1.091606 1.170170 1.089378 1.032162 1.074555 1.022266 0.975465
P_10 1.045049 1.003405 0.963133 0.996191 1.045228 1.014285 1.126225 1.185486
P_10 1.146198 1.001374 1.013434 0.939908 0.992935 0.931213 0.836870 0.754791
P_10 0.690221 0.630373 0.511246 0.467675 0.380840 0.422377 0.407707 0.462708
P_10 0.445344 0.530251 0.593637 0.631476 0.713641 0.790413 0.917384 0.965329
P_10 1.099965 1.105964 1.058195 1.246839 1.114014 1.244308 1.054622 1.196713
P_10 1.150794 1.100694 1.057396 0.972667 1.018202 0.995139 0.949969 1.035846
P_10 0.960188 0.916882 1.082846 0.926741 0.983358 1.168962 1.138286 1.151551
P_10 1.141920 1.170088 1.033980 1.013770 0.921433 0.925502 0.846918 0.697828
P_10 0.640739 0.619460 0.546822 0.470869 0.411547 0.439849 0.459062 0.437098
P_10 0.537125 0.555082 0.625990 0.783025 0.797556 1.035874 1.052541 1.219771
P_10 1.172657 1.318037 1.296813 1.421027 1.396114 1.373849 1.427137 1.266276
P_10 1.273641 1.209122 1.151183 1.186166 1.039511 1.023393 0.941795 1.159613
P_10 1.016309 1.122071 1.090117 1.022698 1.072438 1.124077 1.160060 1.083932
P_10 1.112631 1.059978 1.063832 1.010011 0.939743 0.931182 0.921699 0.776755
P_10 0.740073 0.663865 0.617515 0.598463 0.530220 0.469058 0.443955 0.435977
P_10 0.454419 0.458835 0.519527 0.527222 0.591688 0.697793 0.868127 0.864316
P_10 0.919323 0.968123 1.083174 0.994628 1.230174 1.155289 1.135177 1.203408
P_10 1.134489 1.122423 1.067445 1.111371 1.084451 0.930946 1.000134 1.053496
P_10 1.112081 1.052345 1.056088 1.030103 1.022700 0.978477 1.052186 1.002752
P_10 0.946145 0.931216 0.874437 0.864956 0.801563 0.816707 0.768947 0.685637
P_10 0.620650 0.612690 0.560920 0.551008 0.419884 0.476420 0.460603 0.453721
P_10 0.411295 0.417004 0.472873 0.465630 0.589058 0.575654 0.587244 0.775577
P_10 0.810931 0.817962 0.827793 0.869623 0.978911 0.960866 1.095809 0.961543
P_10 1.081039 1.086254 1.073269 0.944091 1.005149 0.908733 0.985865 0.987759
P_10 0.979362 0.853385 0.955254 0.955583 1.014093 1.059980 1.041813 1.026695
P_10 1.010871 1.010686 0.938464 1.007772 0.851948 0.881040 0.727078 0.697359
P_10 0.564394 0.528902 0.494155 0.457195 0.412148 0.382587 0.410827 0.432207
P_10 0.452542 0.499920 0.561809 0.616565 0.776424 0.907806 0.820830 1.053884
P_10 1.036836 1.193074 1.268358 1.308000 1.405805 1.276431 1.321707 1.286033
P_10 1.184711 1.148704 1.176687 1.012243 1.044361 0.950718 0.949509 0.999484
P_10 0.896762 0.902652 0.919911 0.929022 0.976178 0.904476 1.057201 1.115950
P_10 1.007840 1.071527 1.116209 0.973384 1.034124 0.869761 0.786416 0.714953
P_10 0.732244 0.667567 0.539107 0.460128 0.432035 0.418275 0.392652 0.422490
P_10 0.462610 0.490688 0.594850 0.709921 0.715665 0.798373 0.875282 1.017145
P_10 1.023638 1.177158 1.182926 1.098609 1.302864 1.214963 1.315287 1.173364
P_10 1.136388 1.154672 1.142416 1.159355 1.025194 0.935979 1.063146 0.992468
P_10 0.983623 1.066921 1.018834 1.008117 0.963274 1.001648 1.201809 1.108116
P_10 1.148188 1.166318 1.117048 1.071433 1.016272 1.009782 0.880017 0.714732
P_10 0.678637 0.586705 0.503297 0.428311 0.413762 0.379821 0.410545 0.410238
P_10 0.483129 0.522158 0.601201 0.684291 0.794163 0.839896 0.970005 1.036798
P_10 1.082196 1.238814 1.182453 1.197610 1.269841 1.190037 1.213863 1.167244
P_10 1.155464 1.216854 1.144832 1.122719 1.100834 0.973668 1.043421 1.002498
P_10 1.108840 1.025180 0.983072 1.076042 1.073301 1.117300 1.145415 1.046109
P_10 1.121171 0.971913 1.074394 0.958164 0.986011 0.874902 0.863533 0.705426
P_10 0.719035 0.600255 0.510048 0.464580 0.427832 0.410712 0.390277 0.421733
P_10 0.471305 0.506887 0.538418 0.727635 0.808456 0.774213 0.890413 1.000414
P_10 1.239935 1.283648 1.117421 1.253338 1.159337 1.150181 1.128194 1.301764
P_10 1.129335 1.022200 0.999991 1.017700 1.020834 1.015220 0.936817 0.998904
P_10 1.026226 1.005341 1.092959 0.999728 0.921796 1.131323 1.089205 1.072110
P_10 1.207373 1.075110 1.073702 1.041805 0.972050 0.903555 0.877457 0.738433
P_10 0.711636 0.596486 0.537926 0.456315 0.490700 0.441435 0.367356 0.428322
P_10 0.508976 0.583102 0.682356 0.793322 0.956195 1.056642 1.102985 1.179297
P_10 1.312165 1.252052 1.374616 1.493592 1.407180 1.339021 1.339523 1.239066
P_10 1.168408 1.168829 1.164285 1.118285 1.222150 1.144940 1.055717 1.009445
P_10 1.034979 1.149123 1.017832 1.070688 1.136214 1.042585 1.106351 1.190832
P_10 1.162551 1.028013 0.959469 1.020546 0.921717 1.025126 0.880155 0.832134
P_10 0.746108 0.671311 0.589256 0.517725 0.526030 0.467808 0.458571 0.458065
P_10 0.462190 0.462361 0.515947 0.585900 0.634682 0.728393 0.790529 0.836997
P_10 1.000574 0.969141 1.134029 1.113412 1.218983 1.178240 1.081706 1.225831
P_10 1.127524 1.143870 1.070464 1.071444 1.225008 1.079294 1.043695 1.073230
P_10 1.153419 1.032866 1.128671 1.023129 1.047157 1.064291 1.059254 1.104954
P_10 1.026515 0.977345 0.980796 0.901483 0.826053 0.761440 0.682922 0.654357
P_10 0.591894 0.618611 0.573373 0.489984 0.506934 0.472802 0.518342 0.410869
P_10 0.439402 0.392104 0.434630 0.481071 0.556986 0.589944 0.635920 0.706819
P_10 0.747015 0.828307 0.839913 0.992809 0.950517 1.006064 1.060539 1.095306
P_10 1.014992 1.040930 1.047215 1.011546 0.949064 1.008314 0.915370 0.989898
P_10 0.921230 1.000232 0.993069 1.021256 1.044766 1.070176 1.024063 1.012449
P_10 0.997121 1.062683 1.016717 0.975528 0.856460 0.943913 0.816150 0.739832
P_10 0.681819 0.602918 0.496611 0.473925 0.439616 0.397357 0.423539 0.384090
P_10 0.469017 0.511670 0.612680 0.640400 0.723640 0.830940 0.969845 1.092404
P_10 1.123942 1.222443 1.260384 1.332336 1.166075 1.292869 1.240876 1.287431
P_10 1.238123 1.259461 1.103271 0.957264 1.019219 1.015353 1.015740 0.913854
P_10 0.909027 0.977876 0.915752 0.964194 0.907384 1.043617 1.067460 1.133175
P_10 1.050299 1.104383 1.185309 1.090476 0.961862 1.000295 0.852910 0.792927
P_10 0.686778 0.620135 0.545265 0.497881 0.426374 0.402491 0.427184 0.424075
P_10 0.446757 0.494838 0.569220 0.668770 0.776613 0.826806 0.921487 0.999987
P_10 1.220495 1.146762 1.177102 1.315465 1.208103 1.094875 1.291767 1.216692
P_10 1.200951 1.119879 1.177660 1.061050 1.020840 1.089124 0.935161 0.911545
P_10 0.993001 1.061034 1.004398 1.013037 1.061669 1.134637 1.177273 1.223198
P_10 1.140032 1.114426 1.065546 1.166789 0.982754 0.891374 0.834172 0.794656
P_10 0.659079 0.546267 0.527754 0.450449 0.420417 0.437853 0.409649 0.441017
P_10 0.480766 0.569474 0.549336 0.766122 0.863700 0.887412 0.904617 1.032296
P_10 1.109737 1.109611 1.158480 1.146951 1.185512 1.164630 1.308478 1.224742
P_10 1.195829 1.216185 1.137390 1.106143 1.048160 1.069830 1.001553 1.066809
P_10 1.050708 1.032803 1.080978 1.128384 1.008127 1.072739 1.093154 1.091889
P_10 1.154033 1.105062 1.147436 1.109674 1.081804 0.821270 0.869492 0.732829
P_10 0.739548 0.628004 0.508175 0.474284 0.427465 0.410485 0.446745 0.470333
P_10 0.512662 0.533760 0.594556 0.723822 0.852379 0.945093 0.980562 1.064665
P_10 1.200589 1.157726 1.183385 1.121247 1.144958 1.256680 1.216127 1.152693
P_10 1.166961 1.067600 1.152537 1.186053 0.974398 0.940887 0.984549 1.023397
P_10 0.975831 1.072679 1.074406 1.102791 1.036822 1.055684 1.080299 1.154199
P_10 1.194296 1.171008 1.045819 1.137177 1.031065 0.997728 0.898268 0.829471
P_10 0.712429 0.605275 0.570209 0.522548 0.473788 0.475246 0.425275 0.422598
P_10 0.508124 0.539108 0.697563 0.838191 0.872306 1.026331 1.076449 1.235475
P_10 1.414014 1.499469 1.292103 1.460747 1.457704 1.476897 1.424682 1.226521
P_10 1.245079 1.189580 1.262854 1.140626 1.168040 1.140774 1.094708 1.050104
P_10 1.073307 1.054341 1.185485 1.089319 1.016114 1.145867 1.091382 1.118024
P_10 1.100377 1.162666 1.104267 1.101435 0.975788 0.876455 0.838509 0.851894
P_10 0.797386 0.629483 0.670641 0.594564 0.539469 0.429649 0.459624 0.442636
P_10 0.436744 0.482673 0.519235 0.554049 0.641950 0.640238 0.712010 0.884295
P_10 1.023036 1.048738 0.985599 1.153044 1.154855 1.208588 1.262426 1.234313
P_10 1.262100 1.120018 1.215364 1.083282 1.061003 1.018582 1.154526 1.039331
P_10 1.143179 1.145838 1.096201 1.061850 1.145267 1.063595 1.070893 0.996849
P_10 0.892785 0.903649 0.949968 0.897818 0.770655 0.850012 0.745547 0.690628
P_10 0.662194 0.612125 0.569243 0.525248 0.525553 0.498852 0.460262 0.438962
P_10 0.429362 0.448032 0.438522 0.450349 0.524064 0.629552 0.624279 0.682472
P_10 0.849713 0.788835 0.860246 0.958640 1.017523 1.046984 1.091252 1.019617
P_10 1.135375 1.118277 1.094331 1.115346 1.033686 1.078304 1.073302 0.964129
P_10 1.083663 1.090532 1.021573 0.950753 0.980272 1.135242 1.100601 1.018016
P_10 1.160435 1.111956 1.035089 1.004869 0.946843 0.970823 0.818863 0.769531
P_10 0.712555 0.541500 0.489325 0.485444 0.445173 0.413003 0.382987 0.438005
P_10 0.454041 0.530000 0.586017 0.672755 0.717133 0.791975 0.977036 1.008395
P_10 1.063649 1.176865 1.303788 1.247272 1.355663 1.353398 1.263382 1.327651
P_10 1.208668 1.309279 1.110616 1.154487 1.147899 0.946962 0.999871 0.943133
P_10 1.018789 0.984225 1.151969 1.039132 1.143729 1.149502 1.157337 1.114509
P_10 1.043921 1.222405 1.135193 1.068754 1.074546 0.988754 0.928153 0.789240
P_10 0.704606 0.620744 0.526231 0.491901 0.472381 0.401406 0.384625 0.425408
P_10 0.455540 0.533038 0.665870 0.696431 0.794786 0.883327 0.959792 1.037006
P_10 1.146606 1.189163 1.185471 1.254637 1.198230 1.208241 1.396209 1.188179
P_10 1.152516 1.118631 1.052247 1.064164 1.069013 0.962126 0.962044 0.945816
P_10 0.950925 0.956170 1.102794 1.033117 1.108301 1.165109 1.169694 1.142207
P_10 1.018860 1.067658 1.169916 1.047911 1.053420 0.966468 0.859738 0.707867
P_10 0.659986 0.556612 0.493289 0.465586 0.472337 0.427874 0.411640 0.503755
P_10 0.496339 0.528512 0.658176 0.717820 0.807596 0.850947 0.947904 1.039921
P_10 1.086742 1.214610 1.268186 1.367073 1.277152 1.257613 1.258730 1.383548
P_10 1.289510 1.163147 1.206784 1.079867 1.016039 1.100968 1.104134 1.063974
P_10 1.047989 0.980550 1.117010 1.074627 1.094710 1.050362 1.092543 1.109621
P_10 1.226236 1.155060 1.077775 1.142662 1.034125 0.884115 0.854883 0.862923
P_10 0.761777 0.628121 0.572679 0.455610 0.480523 0.410498 0.387456 0.471684
P_10 0.525339 0.496662 0.606841 0.714002 0.796433 0.843393 1.036637 0.973929
P_10 1.208642 1.157618 1.211733 1.322441 1.333602 1.237265 1.239376 1.254183
P_10 1.151870 1.087458 1.102021 1.048549 1.044539 1.076462 1.058751 0.981652
P_10 1.016981 0.998917 0.975860 1.044101 1.146704 1.121123 1.188241 1.168561
P_10 1.234205 1.104880 1.139255 1.025593 0.998210 0.949712 0.885680 0.798984
P_10 0.671819 0.619085 0.606790 0.550496 0.459884 0.481493 0.467629 0.505158
P_10 0.525431 0.661982 0.768263 0.781967 0.853400 1.066851 1.176556 1.269619
P_10 1.352309 1.472198 1.529801 1.315289 1.419930 1.418276 1.477916 1.344991
P_10 1.242847 1.188811 1.235494 1.271448 1.198808 1.089688 1.079121 1.088140
P_10 1.149847 1.102192 1.152973 1.089610 1.221464 1.088537 1.158830 1.170978
P_10 1.247208 1.105535 1.003962 1.080355 0.871707 0.869047 0.922368 0.810210
P_10 0.787168 0.679363 0.626913 0.575271 0.576974 0.417957 0.447965 0.452842
P_10 0.445167 0.477251 0.478901 0.538714 0.623653 0.668111 0.836223 0.890244
P_10 0.982696 1.052861 1.071357 1.114583 1.213295 1.267149 1.176146 1.122444
P_10 1.223264 1.244464 1.100493 1.173008 1.136655 1.096900 1.130857 1.132453
P_10 1.097069 1.243837 1.031731 1.172960 1.090249 1.203418 1.214544 1.072105
P_10 0.941536 0.998005 1.018577 0.953601 0.913224 0.820178 0.778049 0.804823
P_10 0.662254 0.691874 0.593477 0.584877 0.532639 0.512924 0.492593 0.472083
P_10 0.422704 0.476243 0.455894 0.543414 0.578709 0.619848 0.628859 0.720864
P_10 0.722023 0.857295 0.972431 0.978677 1.020131 1.139201 1.141477 1.104034
P_10 1.132488 1.120818 1.102139 1.057704 0.934063 0.968667 0.940074 1.042615
P_10 0.955754 1.001852 1.079240 0.953421 0.967956 1.104605 1.060384 1.047760
P_10 1.100766 1.198668 0.998954 1.010717 0.980831 0.874980 0.751608 0.764519
P_10 0.732226 0.542864 0.583531 0.522558 0.410269 0.431914 0.402217 0.442306
P_10 0.452364 0.538335 0.612474 0.690659 0.776987 0.798828 0.924824 1.149668
P_10 1.094681 1.197832 1.299362 1.374071 1.324058 1.510614 1.390567 1.413254
P_10 1.255485 1.228071 1.240098 1.032902 1.035498 0.968551 0.962576 1.002719
P_10 1.037715 1.019294 1.043010 1.084229 0.963848 1.045178 1.256753 1.083552
P_10 1.161344 1.182650 1.129661 1.100531 1.000896 0.933507 0.853039 0.818287
P_10 0.751296 0.652483 0.566051 0.529758 0.460134 0.406228 0.408517 0.404514
P_10 0.498369 0.550442 0.594714 0.713232 0.819524 0.871867 0.951647 1.144382
P_10 1.016550 1.217343 1.253473 1.400142 1.198022 1.258417 1.368973 1.217013
P_10 1.211506 1.082570 1.209420 1.134459 1.099977 1.112170 1.080619 1.029037
P_10 0.898437 1.099275 0.953243 1.057991 1.106724 1.202726 1.227402 1.100535
P_10 1.247718 1.193138 1.145748 1.039059 1.168703 1.005160 0.888409 0.830484
P_10 0.650334 0.650413 0.522411 0.467572 0.463199 0.424293 0.436613 0.435583
P_10 0.548420 0.621351 0.671147 0.739185 0.828598 0.912626 1.017269 1.094023
P_10 1.153062 1.172032 1.116537 1.368815 1.336096 1.336303 1.252634 1.185278
P_10 1.271716 1.387727 1.244995 1.232487 1.125759 1.084884 1.096224 1.029756
P_10 1.088018 0.995073 1.044996 1.140917 1.154481 1.263890 1.206082 1.194237
P_10 1.175057 1.207199 1.175384 1.095544 0.986235 0.973795 0.863447 0.746844
P_10 0.695138 0.623782 0.561075 0.558682 0.453182 0.438219 0.482139 0.470517
P_10 0.485817 0.549344 0.711945 0.764897 0.849823 0.904116 1.004276 1.214758
P_10 1.162293 1.208055 1.248520 1.241551 1.324094 1.385971 1.291658 1.239595
P_10 1.146998 1.276042 1.171452 1.122377 1.124522 0.984366 1.011641 0.975290
P_10 0.977814 1.051313 1.099909 1.155876 1.139963 1.127009 1.192024 1.239817
P_10 1.263265 1.174300 1.112106 1.104356 1.026407 0.941955 0.900688 0.826901
P_10 0.785349 0.735691 0.548171 0.550570 0.463831 0.448465 0.444547 0.507875
P_10 0.544370 0.649086 0.678694 0.845250 0.930920 1.077442 1.130354 1.214441
P_10 1.338164 1.456480 1.400874 1.501230 1.445364 1.497930 1.476861 1.259539
P_10 1.303390 1.225532 1.174971 1.227918 1.243847 1.122133 1.155939 1.173755
P_10 1.064165 1.173510 1.220118 1.242589 1.152037 1.240338 1.187072 1.277895
P_10 1.111737 1.100344 1.166857 1.124420 0.952503 1.021845 0.908955 0.768455
P_10 0.786494 0.678832 0.640630 0.646962 0.474130 0.496499 0.491088 0.461052
P_10 0.468364 0.497088 0.532649 0.594984 0.641791 0.795245 0.897966 0.987808
P_10 0.999488 0.931596 1.099977 1.192355 1.230720 1.217841 1.242872 1.263380
P_10 1.254443 1.257348 1.212605 1.203011 1.103273 1.112622 1.169528 1.117515
P_10 1.197230 1.137504 1.182896 1.254015 1.159729 1.121290 1.038036 1.072354
P_10 1.150019 0.996619 0.972960 0.970391 0.822836 0.836392 0.792558 0.786772
P_10 0.715059 0.673759 0.622551 0.567193 0.490895 0.509841 0.458712 0.480201
P_10 0.475129 0.465808 0.469869 0.544707 0.535923 0.600932 0.697209 0.743282
P_10 0.731010 0.829257 0.945131 1.097063 1.067749 1.001420 1.208837 1.097466
P_10 1.179892 1.138753 1.104847 1.138326 1.231935 0.979405 1.016640 1.090194
P_10 0.956352 1.031823 0.988278 1.079447 1.043808 1.181921 1.094868 1.115188
P_10 1.119025 1.003055 1.069018 1.018163 1.020201 0.867346 0.910779 0.720567
P_10 0.688457 0.559818 0.514824 0.504071 0.430057 0.413909 0.410325 0.401897
P_10 0.474218 0.560644 0.635027 0.685039 0.783039 0.959251 0.928844 1.018443
P_10 1.231310 1.478221 1.279157 1.399848 1.331814 1.432477 1.342732 1.394964
P_10 1.376248 1.215902 1.195365 1.242019 1.124591 0.960963 0.980883 0.973879
P_10 0.991857 0.948022 0.987896 1.083011 1.042195 1.152514 1.192766 1.267538
P_10 1.185304 1.357448 1.067901 1.063800 1.077234 1.013416 0.888489 0.838737
P_10 0.779457 0.642733 0.596994 0.533010 0.505490 0.422035 0.458082 0.471868
P_10 0.476047 0.530427 0.611339 0.719860 0.841816 0.957815 1.069146 1.062688
P_10 1.226878 1.204872 1.203088 1.320778 1.353197 1.317057 1.166076 1.363180
P_10 1.257745 1.223548 1.243467 1.120799 1.083195 1.085170 1.096007 1.089805
P_10 1.066350 1.139835 1.079140 1.115501 1.079405 1.185772 1.239178 1.200509
P_10 1.230537 1.204480 1.144890 1.151171 1.032564 0.975697 0.875208 0.788475
P_10 0.702825 0.623213 0.583804 0.503926 0.449867 0.411469 0.425793 0.466960
P_10 0.530959 0.625610 0.696751 0.662310 0.820682 0.921254 0.947809 1.035731
P_10 1.164891 1.178070 1.321626 1.273109 1.254000 1.449936 1.413903 1.192816
P_10 1.181800 1.321180 1.282700 1.164012 1.166022 1.116329 1.017552 1.097507
P_10 1.048691 1.031225 1.057680 1.126104 1.176955 1.247885 1.136944 1.150501
P_10 1.230555 1.288094 1.128955 1.104417 1.037684 0.987438 0.953278 0.755553
P_10 0.697803 0.668281 0.587655 0.522159 0.494982 0.464264 0.430048 0.444565
P_10 0.475813 0.616264 0.696872 0.761494 0.755697 1.052657 1.092993 1.249804
P_10 1.213335 1.255935 1.269559 1.329662 1.242004 1.321642 1.235075 1.307994
P_10 1.168988 1.204508 1.148356 1.065817 0.983734 1.107591 1.071075 1.056917
P_10 1.087994 1.168562 1.116106 1.070956 1.092495 1.225916 1.171551 1.091985
P_10 1.235268 1.255046 1.189929 1.101734 1.123843 0.939225 0.949035 0.885378
P_10 0.768224 0.637287 0.614854 0.513262 0.466381 0.452384 0.480886 0.487688
P_10 0.585240 0.661568 0.744675 0.960330 0.940354 1.119011 1.228129 1.342287
P_10 1.478699 1.472455 1.521796 1.522785 1.407521 1.624004 1.313994 1.402413
P_10 1.414570 1.191654 1.351906 1.233861 1.208343 1.198909 1.153561 1.172113
P_10 1.089636 1.110524 1.204603 1.167619 1.250162 1.138071 1.185107 1.200793
P_10 1.102192 1.227472 1.083443 1.112375 0.968414 1.041025 0.970999 0.862555
P_10 0.778923 0.723027 0.696077 0.638363 0.542979 0.538246 0.478328 0.487927
P_10 0.447280 0.508601 0.626782 0.604605 0.642854 0.729885 0.864635 0.988653
P_10 0.982333 1.103613 1.233949 1.114986 1.165065 1.280684 1.229370 1.341493
P_10 1.220220 1.212178 1.193197 1.128178 1.245086 1.158171 1.117803 1.095214
P_10 1.196154 1.155890 1.087154 1.184328 1.193607 1.057856 1.030425 1.116886
P_10 1.028793 1.049139 0.977381 1.092057 0.908803 0.814767 0.902525 0.703742
P_10 0.785426 0.652863 0.600090 0.545919 0.549720 0.522359 0.482629 0.471755
P_10 0.506435 0.483601 0.461118 0.525576 0.571299 0.678273 0.707565 0.822495
P_10 0.812683 0.850203 1.020044 1.069681 1.126649 1.128327 1.139611 1.121882
P_10 1.099095 1.137590 1.100597 1.058965 1.023624 1.176357 1.054497 1.031838
P_10 1.059848 1.095985 1.037837 1.054531 1.082681 1.128291 1.142923 1.182703
P_10 1.234894 1.170304 1.153658 1.106490 0.956427 0.886134 0.853581 0.808036
P_10 0.676101 0.604122 0.571227 0.492158 0.473831 0.380176 0.388472 0.468704
P_10 0.487520 0.555196 0.657891 0.684316 0.911681 0.924391 1.025656 1.143022
P_10 1.213722 1.346415 1.304140 1.432746 1.374190 1.403425 1.414693 1.388812
P_10 1.351692 1.342322 1.239555 1.102070 1.141813 1.124663 1.013362 1.010709
P_10 0.952809 1.031257 1.024345 1.122340 1.119445 1.130275 1.277221 1.225254
P_10 1.218570 1.131737 1.160311 1.047911 0.954569 1.056913 0.846100 0.822182
P_10 0.741982 0.585616 0.541089 0.518582 0.463067 0.444157 0.436216 0.520654
P_10 0.475219 0.560841 0.629416 0.779002 0.778440 0.927143 0.979341 1.138754
P_10 1.116222 1.274512 1.299960 1.387396 1.459844 1.346300 1.344309 1.326851
P_10 1.285199 1.279222 1.123613 1.106271 0.969681 1.008544 1.000946 1.077078
P_10 1.014282 1.050930 1.212385 1.207106 1.161284 1.187178 1.318353 1.272438
P_10 1.309741 1.284331 1.227286 1.107383 1.137401 1.017610 0.866373 0.832233
P_10 0.737833 0.666142 0.619520 0.554559 0.436934 0.420687 0.440513 0.462981
P_10 0.547337 0.646277 0.632925 0.690365 0.858709 1.030353 1.030698 1.098156
P_10 1.057235 1.276458 1.435512 1.358019 1.279510 1.431376 1.254473 1.423076
P_10 1.397269 1.285136 1.210550 1.167129 1.212724 1.129543 1.138094 1.121922
P_10 0.984090 1.147644 1.098386 1.238664 1.213973 1.179651 1.188588 1.231091
P_10 1.216794 1.266678 1.179879 1.070758 1.124335 1.070809 0.950590 0.789179
P_10 0.742412 0.654170 0.574278 0.557964 0.483479 0.454117 0.463992 0.458942
P_10 0.497984 0.565910 0.722103 0.797157 0.824278 0.924187 1.082379 1.136373
P_10 1.160314 1.277988 1.277328 1.295809 1.436674 1.300953 1.361646 1.311467
P_10 1.376988 1.096182 1.268248 1.116647 1.125845 1.097765 1.208141 1.089737
P_10 1.061824 1.115292 1.180091 1.180740 1.282479 1.256400 1.268046 1.160331
P_10 1.197621 1.204161 1.145917 1.243676 1.004936 1.002598 1.085801 0.845266
P_10 0.743214 0.720536 0.571436 0.547641 0.503311 0.461898 0.466487 0.526602
P_10 0.576275 0.684183 0.795607 0.795764 0.984796 1.110864 1.166178 1.329076
P_10 1.441638 1.432194 1.544685 1.714552 1.486608 1.537621 1.459968 1.388861
P_10 1.305505 1.408422 1.316169 1.301453 1.226102 1.226620 1.164181 1.185438
P_10 1.086853 1.059254 1.179476 1.128025 1.237656 1.103173 1.157922 1.192464
P_10 1.275348 1.177687 1.263290 1.101174 0.986469 1.009574 0.913029 0.905733
P_10 0.822578 0.731330 0.669425 0.621383 0.599220 0.509415 0.510355 0.515061
P_10 0.469032 0.525186 0.560172 0.595807 0.680335 0.825182 0.869967 1.011854
P_10 1.032944 1.120513 1.192871 1.194188 1.235629 1.323126 1.153888 1.232155
P_10 1.343275 1.334978 1.234348 1.093354 1.327772 1.137083 1.231892 1.217169
P_10 1.108185 1.110316 1.218699 1.094537 1.215771 1.226287 1.126487 1.217924
P_10 1.198899 1.141271 0.985072 1.011611 0.918707 0.911541 0.745597 0.774745
P_10 0.729851 0.742469 0.718952 0.582133 0.550607 0.562587 0.480398 0.506937
P_10 0.492569 0.457192 0.507306 0.533848 0.570839 0.657166 0.749965 0.808272
P_10 0.915918 0.920928 1.068112 1.069942 1.093126 1.179519 1.016378 1.129599
P_10 1.126731 1.243090 1.085085 1.151359 1.067983 1.113688 1.087288 1.203193
P_10 1.026940 1.024255 1.013740 1.029660 1.095059 1.163757 1.134588 1.123125
P_10 1.197593 1.122870 1.130704 1.054235 0.957969 0.960842 0.919976 0.839733
P_10 0.698124 0.632851 0.603566 0.474774 0.498013 0.423928 0.449208 0.465097
P_10 0.472552 0.530125 0.646786 0.683471 0.785700 0.920479 0.993497 1.122163
P_10 1.236014 1.253087 1.296454 1.378456 1.424201 1.478225 1.442220 1.482193
P_10 1.388210 1.253863 1.176739 1.216259 1.182459 1.055110 0.920026 0.999613
P_10 1.085687 1.054405 1.088801 1.106025 1.173849 1.110908 1.241434 1.192202
P_10 1.284019 1.204347 1.142142 1.119602 1.119499 0.977421 0.903979 0.807805
P_10 0.731599 0.640724 0.552904 0.515172 0.493522 0.466345 0.423451 0.493274
P_10 0.545144 0.576381 0.642999 0.701841 0.864561 1.011107 1.015520 1.105996
P_10 1.214753 1.233008 1.302931 1.435162 1.403195 1.216386 1.421042 1.354310
P_10 1.233552 1.257454 1.233824 1.218301 1.143904 1.035554 1.121309 1.126423
P_10 1.036106 1.172523 1.123071 1.150415 1.176083 1.210249 1.302648 1.243610
P_10 1.311170 1.379736 1.228544 1.189236 1.167416 0.963437 0.879978 0.844925
P_10 0.741364 0.654812 0.580213 0.549203 0.504323 0.425827 0.517665 0.474402
P_10 0.555772 0.603313 0.667230 0.770579 0.926123 1.013146 1.181068 1.140569
P_10 1.247210 1.250629 1.358528 1.358465 1.401435 1.315645 1.515294 1.443943
P_10 1.330692 1.296055 1.167509 1.285991 1.160294 1.261586 1.138440 1.156274
P_10 1.006031 1.171096 1.262863 1.261509 1.225040 1.306724 1.231280 1.094428
P_10 1.293367 1.174180 1.171987 1.148634 1.155337 1.025688 0.933119 0.820224
P_10 0.728919 0.600845 0.584462 0.512577 0.471549 0.475889 0.456513 0.487475
P_10 0.530937 0.590358 0.662880 0.804329 0.823925 0.962908 1.183066 1.163172
P_10 1.266396 1.352081 1.326641 1.425004 1.350563 1.438484 1.373311 1.233906
P_10 1.374762 1.151739 1.234446 1.188979 1.264431 1.148572 1.080955 1.144835
P_10 1.061791 1.144703 1.190955 1.063677 1.066182 1.310308 1.125362 1.235397
P_10 1.303304 1.261202 1.216027 1.209781 1.104072 1.054970 0.944949 0.877973
P_10 0.753429 0.640332 0.635097 0.504946 0.515391 0.479874 0.491703 0.512110
P_10 0.574866 0.642871 0.739673 0.814092 0.977421 1.110165 1.332332 1.344397
P_10 1.450393 1.471025 1.665362 1.629094 1.513360 1.608831 1.378956 1.399479
P_10 1.385074 1.435211 1.310568 1.297539 1.216059 1.266836 1.218009 1.226655
P_10 1.147123 1.131436 1.173569 1.235103 1.240970 1.254157 1.246546 1.313085
P_10 1.305861 1.172832 1.129263 1.083267 1.164843 1.117241 0.881954 0.837090
P_10 0.864442 0.721091 0.690074 0.599972 0.612853 0.502922 0.505222 0.478621
P_10 0.459060 0.566874 0.584362 0.598691 0.682359 0.782918 0.896954 0.971277
P_10 1.103804 1.224402 1.120889 1.272843 1.362404 1.243453 1.224724 1.309193
P_10 1.316309 1.358446 1.204489 1.208848 1.148140 1.249347 1.258557 1.207970
P_10 1.159266 1.175424 1.218862 1.256099 1.262430 1.177183 1.076903 1.177436
P_10 1.129187 1.031934 1.132929 1.054138 1.024316 0.901069 0.818764 0.784258
P_10 0.769393 0.638674 0.648606 0.622999 0.536679 0.487928 0.514237 0.470603
P_10 0.531119 0.473922 0.508376 0.514565 0.600715 0.621486 0.679685 0.821105
P_10 0.815563 0.932761 1.069550 1.099253 1.129821 1.198968 1.201647 1.268314
P_10 1.219850 1.145244 1.239551 1.251469 1.198461 1.062288 1.119501 1.095624
P_10 1.061333 1.090180 1.116133 1.092673 1.026291 1.185237 1.147503 1.159746
P_10 1.150510 1.186246 1.196012 1.081433 1.097126 0.948267 0.906644 0.802376
P_10 0.749458 0.619184 0.581133 0.473824 0.470261 0.455679 0.474881 0.457666
P_10 0.504970 0.549957 0.645219 0.804091 0.827366 0.906804 1.073225 1.146598